<?xml version="1.0" encoding="UTF-8"?>

<!-- generated on 2025-11-12 10:16:34 by Eclipse SUMO netgenerate Version 1.18.0
<configuration xmlns:xsi="http://www.w3.org/2001/XMLSchema-instance" xsi:noNamespaceSchemaLocation="http://sumo.dlr.de/xsd/netgenerateConfiguration.xsd">

    <grid_network>
        <grid value="true"/>
        <grid.number value="10"/>
        <grid.length value="100"/>
        <grid.attach-length value="2.0"/>
    </grid_network>

    <output>
        <output-prefix value="grid-default"/>
    </output>

    <processing>
        <turn-lanes value="2"/>
        <turn-lanes.length value="20.0"/>
        <perturb-x value="10.0"/>
        <perturb-y value="10.0"/>
        <bidi-probability value="0.5"/>
        <random-lanenumber value="true"/>
        <random-priority value="true"/>
        <random-type value="true"/>
        <numerical-ids value="false"/>
    </processing>

    <building_defaults>
        <default.lanenumber value="3"/>
        <default.lanewidth value="3.0"/>
        <default.spreadtype value="center"/>
        <default.speed value="30.0"/>
        <default.friction value="1.0"/>
        <default.priority value="-1"/>
    </building_defaults>

    <random_number>
        <seed value="1234"/>
    </random_number>

</configuration>
-->

<net version="1.16" junctionCornerDetail="5" limitTurnSpeed="5.50" xmlns:xsi="http://www.w3.org/2001/XMLSchema-instance" xsi:noNamespaceSchemaLocation="http://sumo.dlr.de/xsd/net_file.xsd">

    <location netOffset="14.34,23.87" convBoundary="0.00,0.00,946.10,946.95" origBoundary="-14.34,-21.10,928.80,920.09" projParameter="!"/>

    <edge id=":A0_0" function="internal">
        <lane id=":A0_0_0" index="0" speed="13.46" length="36.44" width="3.00" shape="2.75,42.61 4.43,36.77 9.77,31.75 18.77,27.55 31.43,24.17"/>
    </edge>
    <edge id=":A0_1" function="internal">
        <lane id=":A0_1_0" index="0" speed="5.35" length="12.85" width="3.00" shape="8.75,42.46 6.64,45.82 4.46,46.97 2.24,45.93 -0.04,42.68"/>
    </edge>
    <edge id=":A0_2" function="internal">
        <lane id=":A0_2_0" index="0" speed="6.24" length="9.99" width="3.00" shape="12.27,37.41 9.45,37.12 7.45,37.88 6.29,39.69 5.95,42.53"/>
        <lane id=":A0_2_1" index="1" speed="7.70" length="15.86" width="3.00" shape="13.00,34.50 8.51,34.04 5.33,35.24 3.48,38.10 2.95,42.61"/>
        <lane id=":A0_2_2" index="2" speed="8.93" length="21.72" width="3.00" shape="13.73,31.59 7.57,30.96 3.22,32.60 0.68,36.51 -0.04,42.68"/>
    </edge>
    <edge id=":A0_5" function="internal">
        <lane id=":A0_5_0" index="0" speed="6.66" length="17.79" width="3.00" shape="14.46,28.68 14.67,28.19 17.57,27.27 23.16,25.93 31.43,24.17"/>
    </edge>
    <edge id=":A0_6" function="internal">
        <lane id=":A0_6_0" index="0" speed="11.34" length="25.63" width="3.00" shape="25.30,28.70 16.74,31.07 10.67,34.16 7.07,37.99 5.95,42.53"/>
        <lane id=":A0_6_1" index="1" speed="12.21" length="29.81" width="3.00" shape="24.70,25.76 15.07,28.50 8.24,32.23 4.20,36.93 2.95,42.61"/>
        <lane id=":A0_6_2" index="2" speed="13.01" length="34.00" width="3.00" shape="24.10,22.82 13.40,25.94 5.81,30.30 1.33,35.88 -0.04,42.68"/>
    </edge>
    <edge id=":A0_9" function="internal">
        <lane id=":A0_9_0" index="0" speed="5.94" length="16.34" width="3.00" shape="22.89,16.94 27.74,15.54 30.78,16.28 32.01,19.16 31.43,24.17"/>
    </edge>
    <edge id=":A0_10" function="internal">
        <lane id=":A0_10_0" index="0" speed="7.61" length="22.24" width="3.00" shape="21.86,16.47 18.17,21.46 18.53,24.40 22.95,25.31 31.43,24.17"/>
    </edge>
    <edge id=":A0_11" function="internal">
        <lane id=":A0_11_0" index="0" speed="18.45" length="32.07" width="3.00" shape="19.69,14.40 13.56,21.69 9.22,28.82 6.69,35.76 5.95,42.53"/>
        <lane id=":A0_11_1" index="1" speed="19.11" length="34.43" width="3.00" shape="17.52,12.33 11.01,20.10 6.41,27.73 3.73,35.24 2.95,42.61"/>
        <lane id=":A0_11_2" index="2" speed="19.74" length="36.79" width="3.00" shape="15.35,10.26 8.46,18.50 3.61,26.65 0.77,34.71 -0.04,42.68"/>
    </edge>
    <edge id=":A0A1.82.67_0" function="internal">
        <lane id=":A0A1.82.67_0_0" index="0" speed="30.00" length="8.70" width="3.00" shape="7.62,108.88 7.62,116.88"/>
        <lane id=":A0A1.82.67_0_1" index="1" speed="30.00" length="8.70" width="3.00" shape="4.62,108.96 4.62,116.96"/>
        <lane id=":A0A1.82.67_0_2" index="2" speed="30.00" length="8.70" width="3.00" shape="1.62,109.03 1.62,117.03"/>
        <lane id=":A0A1.82.67_0_3" index="3" speed="30.00" length="8.70" width="3.00" shape="1.62,109.03 1.18,111.51 0.12,113.07 -0.94,114.64 -1.38,117.11"/>
        <lane id=":A0A1.82.67_0_4" index="4" speed="30.00" length="8.70" width="3.00" shape="1.62,109.03 0.72,111.73 -1.38,113.11 -3.48,114.49 -4.38,117.18"/>
    </edge>
    <edge id=":A0B0.117.15_0" function="internal">
        <lane id=":A0B0.117.15_0_0" index="0" speed="30.00" length="7.30" width="3.00" shape="113.25,7.40 118.99,6.43"/>
        <lane id=":A0B0.117.15_0_1" index="1" speed="30.00" length="7.30" width="3.00" shape="113.25,7.40 115.16,7.52 116.42,8.38 117.69,9.25 119.59,9.37"/>
        <lane id=":A0B0.117.15_0_2" index="2" speed="30.00" length="7.30" width="3.00" shape="113.25,7.40 115.51,7.93 116.72,9.85 117.94,11.78 120.19,12.30"/>
    </edge>
    <edge id=":A1_0" function="internal">
        <lane id=":A1_0_0" index="0" speed="30.00" length="22.69" width="3.00" shape="5.70,145.89 4.74,138.35 4.47,132.27 4.54,127.34 4.57,123.27"/>
    </edge>
    <edge id=":A1_1" function="internal">
        <lane id=":A1_1_0" index="0" speed="9.00" length="3.45" width="3.00" shape="8.66,145.39 8.37,141.96"/>
    </edge>
    <edge id=":A1_2" function="internal">
        <lane id=":A1_2_0" index="0" speed="6.20" length="8.10" width="3.00" shape="11.61,144.89 11.11,140.42 11.35,137.42 11.68,136.93"/>
    </edge>
    <edge id=":A1_3" function="internal">
        <lane id=":A1_3_0" index="0" speed="4.95" length="5.33" width="3.00" shape="14.57,144.38 13.23,147.39 11.58,148.59"/>
    </edge>
    <edge id=":A1_18" function="internal">
        <lane id=":A1_18_0" index="0" speed="9.00" length="14.08" width="3.00" shape="8.37,141.96 8.18,139.61 8.96,135.22 11.00,132.24 14.29,130.65"/>
    </edge>
    <edge id=":A1_19" function="internal">
        <lane id=":A1_19_0" index="0" speed="6.20" length="3.01" width="3.00" shape="11.68,136.93 12.36,135.89 14.12,135.83"/>
    </edge>
    <edge id=":A1_20" function="internal">
        <lane id=":A1_20_0" index="0" speed="4.95" length="5.33" width="3.00" shape="11.58,148.59 9.63,148.00 7.37,145.61"/>
    </edge>
    <edge id=":A1_4" function="internal">
        <lane id=":A1_4_0" index="0" speed="5.97" length="10.23" width="3.00" shape="12.77,140.12 9.92,139.67 8.08,140.44 7.23,142.42 7.37,145.61"/>
    </edge>
    <edge id=":A1_5" function="internal">
        <lane id=":A1_5_0" index="0" speed="10.24" length="17.92" width="3.00" shape="13.67,137.26 9.80,135.34 6.99,132.37 5.25,128.35 4.57,123.27"/>
    </edge>
    <edge id=":A1_6" function="internal">
        <lane id=":A1_6_0" index="0" speed="4.79" length="8.04" width="3.00" shape="14.57,134.40 11.92,133.33 10.99,132.35 11.78,131.46 14.29,130.65"/>
        <lane id=":A1_6_1" index="1" speed="3.81" length="4.46" width="3.00" shape="15.48,131.53 16.78,132.08 17.12,132.61 16.51,133.10 14.95,133.58"/>
    </edge>
    <edge id=":A1_8" function="internal">
        <lane id=":A1_8_0" index="0" speed="4.08" length="6.57" width="3.00" shape="15.48,131.53 16.75,133.11 16.95,134.36 16.07,135.26 14.12,135.83"/>
    </edge>
    <edge id=":A1_9" function="internal">
        <lane id=":A1_9_0" index="0" speed="5.41" length="10.74" width="3.00" shape="14.33,130.85 10.82,131.95 9.62,133.15 10.72,134.44 14.12,135.83"/>
    </edge>
    <edge id=":A1_10" function="internal">
        <lane id=":A1_10_0" index="0" speed="9.76" length="20.78" width="3.00" shape="13.67,127.92 9.91,129.79 7.61,133.36 6.77,138.63 7.37,145.61"/>
    </edge>
    <edge id=":A1_11" function="internal">
        <lane id=":A1_11_0" index="0" speed="5.35" length="12.85" width="3.00" shape="13.01,124.99 16.71,126.41 18.27,128.32 17.68,130.70 14.95,133.58"/>
    </edge>
    <edge id=":A1_12" function="internal">
        <lane id=":A1_12_0" index="0" speed="6.28" length="9.67" width="3.00" shape="13.01,124.99 9.35,125.59 6.73,125.51 5.14,124.73 4.57,123.27"/>
    </edge>
    <edge id=":A1_13" function="internal">
        <lane id=":A1_13_0" index="0" speed="6.05" length="8.89" width="3.00" shape="7.77,123.19 8.19,125.66 9.31,127.24 11.12,127.93 13.62,127.73"/>
        <lane id=":A1_13_1" index="1" speed="7.54" length="14.46" width="3.00" shape="4.77,123.26 5.46,127.28 7.27,129.85 10.21,130.98 14.29,130.65"/>
    </edge>
    <edge id=":A1_15" function="internal">
        <lane id=":A1_15_0" index="0" speed="10.48" length="18.79" width="3.00" shape="1.78,123.34 2.63,127.37 4.97,130.79 8.80,133.61 14.12,135.83"/>
    </edge>
    <edge id=":A1_16" function="internal">
        <lane id=":A1_16_0" index="0" speed="30.00" length="24.06" width="3.00" shape="-1.22,123.41 0.13,131.21 2.87,137.12 5.72,141.73 7.37,145.61"/>
    </edge>
    <edge id=":A1_17" function="internal">
        <lane id=":A1_17_0" index="0" speed="5.35" length="6.43" width="3.00" shape="-4.22,123.49 -2.11,120.13 0.07,118.98"/>
    </edge>
    <edge id=":A1_21" function="internal">
        <lane id=":A1_21_0" index="0" speed="5.35" length="6.43" width="3.00" shape="0.07,118.98 2.29,120.02 4.57,123.27"/>
    </edge>
    <edge id=":A1A0.82.67_0" function="internal">
        <lane id=":A1A0.82.67_0_0" index="0" speed="30.00" length="9.17" width="3.00" shape="2.85,54.32 2.85,46.31"/>
        <lane id=":A1A0.82.67_0_1" index="1" speed="30.00" length="9.17" width="3.00" shape="2.85,54.32 3.29,51.84 4.35,50.28 5.41,48.71 5.85,46.24"/>
        <lane id=":A1A0.82.67_0_2" index="2" speed="30.00" length="9.17" width="3.00" shape="2.85,54.32 3.75,51.64 5.85,50.26 7.94,48.87 8.85,46.16"/>
    </edge>
    <edge id=":A1A2.69.53_0" function="internal">
        <lane id=":A1A2.69.53_0_0" index="0" speed="30.00" length="9.17" width="3.00" shape="16.21,197.53 17.36,205.45"/>
        <lane id=":A1A2.69.53_0_1" index="1" speed="30.00" length="9.17" width="3.00" shape="16.21,197.53 16.13,200.04 15.30,201.74 14.48,203.44 14.40,205.95"/>
        <lane id=":A1A2.69.53_0_2" index="2" speed="30.00" length="9.17" width="3.00" shape="16.21,197.53 15.70,200.30 13.82,201.97 11.95,203.65 11.44,206.45"/>
    </edge>
    <edge id=":A1B1.100.59_0" function="internal">
        <lane id=":A1B1.100.59_0_0" index="0" speed="30.00" length="8.70" width="3.00" shape="98.52,108.51 106.37,106.94"/>
        <lane id=":A1B1.100.59_0_1" index="1" speed="30.00" length="8.70" width="3.00" shape="99.18,111.44 107.03,109.87"/>
        <lane id=":A1B1.100.59_0_2" index="2" speed="30.00" length="8.70" width="3.00" shape="99.85,114.37 107.69,112.80"/>
        <lane id=":A1B1.100.59_0_3" index="3" speed="30.00" length="8.70" width="3.00" shape="99.85,114.37 102.36,114.31 104.10,115.04 105.84,115.78 108.36,115.72"/>
        <lane id=":A1B1.100.59_0_4" index="4" speed="30.00" length="8.70" width="3.00" shape="99.85,114.37 102.67,114.72 104.43,116.51 106.20,118.29 109.02,118.65"/>
    </edge>
    <edge id=":A2_0" function="internal">
        <lane id=":A2_0_0" index="0" speed="3.19" length="2.87" width="3.00" shape="18.22,228.24 21.08,228.50"/>
    </edge>
    <edge id=":A2_1" function="internal">
        <lane id=":A2_1_0" index="0" speed="30.00" length="13.58" width="3.00" shape="18.22,228.24 17.75,224.37 17.74,221.68 17.73,218.99 17.28,215.11"/>
        <lane id=":A2_1_1" index="1" speed="30.00" length="13.58" width="3.00" shape="21.32,228.52 20.81,224.42 20.76,221.57 20.73,218.72 20.23,214.61"/>
    </edge>
    <edge id=":A2_3" function="internal">
        <lane id=":A2_3_0" index="0" speed="6.61" length="11.59" width="3.00" shape="24.41,228.81 24.56,226.33 26.02,224.74 28.79,224.04 32.88,224.22"/>
    </edge>
    <edge id=":A2_4" function="internal">
        <lane id=":A2_4_0" index="0" speed="30.00" length="13.57" width="3.00" shape="17.89,228.21 18.20,224.32 18.22,221.64 17.92,218.97 17.28,215.11"/>
        <lane id=":A2_4_1" index="1" speed="30.00" length="13.57" width="3.00" shape="20.88,228.48 21.21,224.36 21.23,221.52 20.92,218.69 20.23,214.61"/>
    </edge>
    <edge id=":A2_6" function="internal">
        <lane id=":A2_6_0" index="0" speed="7.13" length="11.46" width="3.00" shape="23.87,228.76 24.63,226.35 26.38,224.80 29.13,224.09 32.88,224.22"/>
    </edge>
    <edge id=":A2_7" function="internal">
        <lane id=":A2_7_0" index="0" speed="5.35" length="6.43" width="3.00" shape="26.86,229.03 24.36,232.12 22.07,233.01"/>
    </edge>
    <edge id=":A2_12" function="internal">
        <lane id=":A2_12_0" index="0" speed="5.35" length="6.43" width="3.00" shape="22.07,233.01 19.98,231.72 18.09,228.23"/>
    </edge>
    <edge id=":A2_8" function="internal">
        <lane id=":A2_8_0" index="0" speed="9.67" length="16.42" width="3.00" shape="18.95,214.83 20.14,216.97 22.93,218.75 27.30,220.18 33.27,221.25"/>
    </edge>
    <edge id=":A2_9" function="internal">
        <lane id=":A2_9_0" index="0" speed="30.00" length="13.55" width="3.00" shape="18.95,214.83 19.86,218.87 20.69,221.64 21.18,224.42 21.08,228.50"/>
        <lane id=":A2_9_1" index="1" speed="30.00" length="13.55" width="3.00" shape="16.00,215.33 16.87,219.15 17.68,221.75 18.17,224.37 18.09,228.23"/>
    </edge>
    <edge id=":A2_11" function="internal">
        <lane id=":A2_11_0" index="0" speed="4.95" length="5.33" width="3.00" shape="13.04,215.83 14.38,212.83 16.02,211.62"/>
    </edge>
    <edge id=":A2_13" function="internal">
        <lane id=":A2_13_0" index="0" speed="4.95" length="5.33" width="3.00" shape="16.02,211.62 17.98,212.22 20.23,214.61"/>
    </edge>
    <edge id=":A2A1.69.53_0" function="internal">
        <lane id=":A2A1.69.53_0_0" index="0" speed="30.00" length="8.88" width="3.00" shape="7.37,156.90 6.22,148.98"/>
        <lane id=":A2A1.69.53_0_1" index="1" speed="30.00" length="8.88" width="3.00" shape="10.33,156.40 9.18,148.48"/>
        <lane id=":A2A1.69.53_0_2" index="2" speed="30.00" length="8.88" width="3.00" shape="10.33,156.40 10.41,153.89 11.23,152.18 12.06,150.48 12.14,147.97"/>
        <lane id=":A2A1.69.53_0_3" index="3" speed="30.00" length="8.88" width="3.00" shape="10.33,156.40 10.83,153.60 12.71,151.93 14.59,150.27 15.10,147.47"/>
    </edge>
    <edge id=":A2A3.90.22_0" function="internal">
        <lane id=":A2A3.90.22_0_0" index="0" speed="30.00" length="8.88" width="3.00" shape="13.85,307.23 12.92,315.18"/>
        <lane id=":A2A3.90.22_0_1" index="1" speed="30.00" length="8.88" width="3.00" shape="10.86,306.96 9.93,314.90"/>
        <lane id=":A2A3.90.22_0_2" index="2" speed="30.00" length="8.88" width="3.00" shape="10.86,306.96 10.14,309.36 8.91,310.79 7.67,312.22 6.95,314.63"/>
        <lane id=":A2A3.90.22_0_3" index="3" speed="30.00" length="8.88" width="3.00" shape="10.86,306.96 9.66,309.53 7.41,310.66 5.17,311.78 3.96,314.36"/>
    </edge>
    <edge id=":A2B2.96.05_0" function="internal">
        <lane id=":A2B2.96.05_0_0" index="0" speed="30.00" length="8.88" width="3.00" shape="111.53,231.56 119.43,232.81"/>
        <lane id=":A2B2.96.05_0_1" index="1" speed="30.00" length="8.88" width="3.00" shape="111.14,234.54 119.04,235.78"/>
        <lane id=":A2B2.96.05_0_2" index="2" speed="30.00" length="8.88" width="3.00" shape="111.14,234.54 113.51,235.35 114.89,236.65 116.27,237.94 118.65,238.75"/>
        <lane id=":A2B2.96.05_0_3" index="3" speed="30.00" length="8.88" width="3.00" shape="111.14,234.54 113.66,235.85 114.70,238.13 115.73,240.42 118.26,241.73"/>
    </edge>
    <edge id=":A3_0" function="internal">
        <lane id=":A3_0_0" index="0" speed="30.00" length="13.06" width="3.00" shape="8.87,335.77 8.58,331.94 8.51,329.31 8.66,326.68 9.00,322.85"/>
        <lane id=":A3_0_1" index="1" speed="30.00" length="13.06" width="3.00" shape="11.86,335.51 11.57,331.62 11.52,328.94 11.70,326.27 12.06,322.37"/>
    </edge>
    <edge id=":A3_2" function="internal">
        <lane id=":A3_2_0" index="0" speed="7.36" length="6.09" width="3.00" shape="14.85,335.25 15.18,332.91 16.59,331.05 17.80,330.39"/>
    </edge>
    <edge id=":A3_3" function="internal">
        <lane id=":A3_3_0" index="0" speed="5.73" length="7.52" width="3.00" shape="17.84,335.00 15.61,339.07 13.15,340.57"/>
    </edge>
    <edge id=":A3_14" function="internal">
        <lane id=":A3_14_0" index="0" speed="7.36" length="5.20" width="3.00" shape="17.80,330.39 19.11,329.67 22.71,328.78"/>
    </edge>
    <edge id=":A3_15" function="internal">
        <lane id=":A3_15_0" index="0" speed="5.73" length="7.52" width="3.00" shape="13.15,340.57 10.48,339.51 7.58,335.88"/>
    </edge>
    <edge id=":A3_4" function="internal">
        <lane id=":A3_4_0" index="0" speed="7.51" length="14.76" width="3.00" shape="12.26,322.34 12.63,325.82 14.50,328.05 17.86,329.04 22.71,328.78"/>
    </edge>
    <edge id=":A3_5" function="internal">
        <lane id=":A3_5_0" index="0" speed="30.00" length="12.93" width="3.00" shape="12.26,322.34 12.13,326.21 12.47,328.85 13.03,331.50 13.56,335.37"/>
        <lane id=":A3_5_1" index="1" speed="30.00" length="12.93" width="3.00" shape="9.21,322.82 9.09,326.62 9.46,329.22 10.04,331.82 10.57,335.62"/>
        <lane id=":A3_5_2" index="2" speed="30.00" length="12.93" width="3.00" shape="6.15,323.30 6.05,327.04 6.44,329.59 7.04,332.14 7.58,335.88"/>
    </edge>
    <edge id=":A3_8" function="internal">
        <lane id=":A3_8_0" index="0" speed="5.43" length="13.28" width="3.00" shape="3.09,323.86 4.77,320.12 6.83,318.63 9.26,319.38 12.06,322.37"/>
    </edge>
    <edge id=":A3_9" function="internal">
        <lane id=":A3_9_0" index="0" speed="4.00" length="5.69" width="3.00" shape="14.63,321.97 9.00,322.85"/>
    </edge>
    <edge id=":A3_10" function="internal">
        <lane id=":A3_10_0" index="0" speed="8.06" length="14.48" width="3.00" shape="11.66,322.44 12.82,325.79 15.04,327.96 18.34,328.96 22.71,328.78"/>
    </edge>
    <edge id=":A3_11" function="internal">
        <lane id=":A3_11_0" index="0" speed="30.00" length="13.32" width="3.00" shape="8.70,322.90 9.81,326.70 11.30,329.11 12.70,331.54 13.56,335.37"/>
        <lane id=":A3_11_1" index="1" speed="30.00" length="13.32" width="3.00" shape="5.74,323.37 6.84,327.10 8.32,329.47 9.72,331.86 10.57,335.62"/>
        <lane id=":A3_11_2" index="2" speed="30.00" length="13.32" width="3.00" shape="2.77,323.83 3.87,327.51 5.34,329.84 6.73,332.17 7.58,335.88"/>
    </edge>
    <edge id=":A3A2.90.22_0" function="internal">
        <lane id=":A3A2.90.22_0_0" index="0" speed="30.00" length="8.88" width="3.00" shape="16.15,244.96 17.08,237.01"/>
        <lane id=":A3A2.90.22_0_1" index="1" speed="30.00" length="8.88" width="3.00" shape="19.14,245.24 20.07,237.29"/>
        <lane id=":A3A2.90.22_0_2" index="2" speed="30.00" length="8.88" width="3.00" shape="19.14,245.24 19.86,242.83 21.10,241.40 22.34,239.97 23.06,237.56"/>
        <lane id=":A3A2.90.22_0_3" index="3" speed="30.00" length="8.88" width="3.00" shape="19.14,245.24 20.35,242.66 22.59,241.54 24.84,240.41 26.05,237.84"/>
    </edge>
    <edge id=":A3A4.87.56_0" function="internal">
        <lane id=":A3A4.87.56_0_0" index="0" speed="30.00" length="8.70" width="3.00" shape="20.34,413.95 20.83,421.94"/>
        <lane id=":A3A4.87.56_0_1" index="1" speed="30.00" length="8.70" width="3.00" shape="17.35,414.21 17.84,422.20"/>
        <lane id=":A3A4.87.56_0_2" index="2" speed="30.00" length="8.70" width="3.00" shape="14.36,414.47 14.85,422.46"/>
        <lane id=":A3A4.87.56_0_3" index="3" speed="30.00" length="8.70" width="3.00" shape="14.36,414.47 14.08,416.96 13.11,418.59 12.15,420.22 11.86,422.71"/>
        <lane id=":A3A4.87.56_0_4" index="4" speed="30.00" length="8.70" width="3.00" shape="14.36,414.47 13.63,417.22 11.62,418.72 9.61,420.23 8.88,422.97"/>
    </edge>
    <edge id=":A3B3.87.03_0" function="internal">
        <lane id=":A3B3.87.03_0_0" index="0" speed="30.00" length="9.17" width="3.00" shape="91.97,317.99 99.91,316.95"/>
        <lane id=":A3B3.87.03_0_1" index="1" speed="30.00" length="9.17" width="3.00" shape="91.97,317.99 94.48,318.10 96.17,318.95 97.86,319.80 100.37,319.92"/>
        <lane id=":A3B3.87.03_0_2" index="2" speed="30.00" length="9.17" width="3.00" shape="91.97,317.99 94.74,318.54 96.38,320.44 98.03,322.34 100.83,322.88"/>
    </edge>
    <edge id=":A4_0" function="internal">
        <lane id=":A4_0_0" index="0" speed="30.00" length="24.38" width="3.00" shape="18.19,449.83 16.43,425.58"/>
        <lane id=":A4_0_1" index="1" speed="30.00" length="24.38" width="3.00" shape="21.19,449.70 19.42,425.32"/>
    </edge>
    <edge id=":A4_2" function="internal">
        <lane id=":A4_2_0" index="0" speed="7.97" length="14.81" width="3.00" shape="24.18,449.58 24.54,445.20 26.03,442.09 28.64,440.27 32.38,439.72"/>
    </edge>
    <edge id=":A4_3" function="internal">
        <lane id=":A4_3_0" index="0" speed="5.73" length="15.04" width="3.00" shape="27.18,449.46 24.76,453.43 22.24,454.82 19.62,453.63 16.89,449.88"/>
    </edge>
    <edge id=":A4_4" function="internal">
        <lane id=":A4_4_0" index="0" speed="8.20" length="15.71" width="3.00" shape="32.37,439.92 28.07,440.45 25.06,442.24 23.33,445.31 22.89,449.64"/>
        <lane id=":A4_4_1" index="1" speed="9.35" length="20.77" width="3.00" shape="32.44,436.92 26.75,437.62 22.76,439.99 20.47,444.04 19.89,449.76"/>
        <lane id=":A4_4_2" index="2" speed="10.38" length="25.83" width="3.00" shape="32.50,433.92 25.42,434.79 20.46,437.74 17.62,442.77 16.89,449.88"/>
    </edge>
    <edge id=":A4_7" function="internal">
        <lane id=":A4_7_0" index="0" speed="8.63" length="15.39" width="3.00" shape="32.56,430.92 26.98,430.47 22.93,429.39 20.41,427.67 19.42,425.32"/>
    </edge>
    <edge id=":A4_8" function="internal">
        <lane id=":A4_8_0" index="0" speed="5.35" length="12.85" width="3.00" shape="32.56,430.92 35.82,433.19 36.87,435.41 35.72,437.59 32.38,439.72"/>
    </edge>
    <edge id=":A4_9" function="internal">
        <lane id=":A4_9_0" index="0" speed="9.31" length="18.03" width="3.00" shape="21.11,425.18 22.19,430.14 24.43,433.72 27.85,435.92 32.44,436.72"/>
    </edge>
    <edge id=":A4_10" function="internal">
        <lane id=":A4_10_0" index="0" speed="30.00" length="24.60" width="3.00" shape="18.12,425.44 19.24,432.67 20.71,437.52 22.08,442.38 22.89,449.64"/>
        <lane id=":A4_10_1" index="1" speed="30.00" length="24.60" width="3.00" shape="15.13,425.69 16.25,432.89 17.72,437.71 19.08,442.55 19.89,449.76"/>
        <lane id=":A4_10_2" index="2" speed="30.00" length="24.60" width="3.00" shape="12.14,425.95 13.26,433.10 14.73,437.90 16.09,442.71 16.89,449.88"/>
    </edge>
    <edge id=":A4_13" function="internal">
        <lane id=":A4_13_0" index="0" speed="5.73" length="9.04" width="3.00" shape="9.15,426.21 11.39,422.14 13.84,420.64 15.25,421.20"/>
    </edge>
    <edge id=":A4_20" function="internal">
        <lane id=":A4_20_0" index="0" speed="5.73" length="6.00" width="3.00" shape="15.25,421.20 16.52,421.70 19.42,425.32"/>
    </edge>
    <edge id=":A4_14" function="internal">
        <lane id=":A4_14_0" index="0" speed="6.04" length="14.20" width="3.00" shape="24.60,435.43 20.90,429.67 18.30,426.11 16.81,424.74 16.43,425.58"/>
    </edge>
    <edge id=":A4_15" function="internal">
        <lane id=":A4_15_0" index="0" speed="8.04" length="8.06" width="3.00" shape="24.60,435.43 25.35,435.94 26.91,436.32 29.27,436.58 32.44,436.72"/>
        <lane id=":A4_15_1" index="1" speed="9.29" length="10.97" width="3.00" shape="22.05,437.01 23.28,438.13 25.41,438.95 28.44,439.48 32.38,439.72"/>
    </edge>
    <edge id=":A4_17" function="internal">
        <lane id=":A4_17_0" index="0" speed="16.15" length="10.23" width="3.00" shape="19.50,438.59 21.28,441.58 22.25,443.79 22.69,446.17 22.89,449.64"/>
        <lane id=":A4_17_1" index="1" speed="15.06" length="10.23" width="3.00" shape="16.95,440.17 18.49,442.76 19.33,444.68 19.71,446.74 19.89,449.76"/>
        <lane id=":A4_17_2" index="2" speed="13.89" length="10.23" width="3.00" shape="14.40,441.75 15.71,443.95 16.42,445.58 16.74,447.32 16.89,449.88"/>
    </edge>
    <edge id=":A4A3.87.56_0" function="internal">
        <lane id=":A4A3.87.56_0_0" index="0" speed="30.00" length="8.88" width="3.00" shape="10.34,355.03 9.85,347.04"/>
        <lane id=":A4A3.87.56_0_1" index="1" speed="30.00" length="8.88" width="3.00" shape="13.32,354.77 12.84,346.79"/>
        <lane id=":A4A3.87.56_0_2" index="2" speed="30.00" length="8.88" width="3.00" shape="13.32,354.77 13.61,352.28 14.57,350.65 15.54,349.02 15.82,346.53"/>
        <lane id=":A4A3.87.56_0_3" index="3" speed="30.00" length="8.88" width="3.00" shape="13.32,354.77 14.06,352.03 16.07,350.52 18.08,349.02 18.81,346.27"/>
    </edge>
    <edge id=":A4A5.65.27_0" function="internal">
        <lane id=":A4A5.65.27_0_0" index="0" speed="30.00" length="8.70" width="3.00" shape="24.89,499.23 25.01,507.24"/>
        <lane id=":A4A5.65.27_0_1" index="1" speed="30.00" length="8.70" width="3.00" shape="21.89,499.36 22.01,507.36"/>
        <lane id=":A4A5.65.27_0_2" index="2" speed="30.00" length="8.70" width="3.00" shape="18.89,499.48 19.02,507.48"/>
        <lane id=":A4A5.65.27_0_3" index="3" speed="30.00" length="8.70" width="3.00" shape="18.89,499.48 18.49,501.96 17.45,503.54 16.42,505.12 16.02,507.60"/>
        <lane id=":A4A5.65.27_0_4" index="4" speed="30.00" length="8.70" width="3.00" shape="18.89,499.48 18.03,502.19 15.96,503.60 13.88,505.01 13.02,507.72"/>
    </edge>
    <edge id=":A4B4.95.59_0" function="internal">
        <lane id=":A4B4.95.59_0_0" index="0" speed="30.00" length="8.88" width="3.00" shape="110.83,438.38 118.82,438.74"/>
        <lane id=":A4B4.95.59_0_1" index="1" speed="30.00" length="8.88" width="3.00" shape="110.76,441.37 118.76,441.74"/>
        <lane id=":A4B4.95.59_0_2" index="2" speed="30.00" length="8.88" width="3.00" shape="110.76,441.37 113.21,441.93 114.73,443.06 116.24,444.19 118.69,444.74"/>
        <lane id=":A4B4.95.59_0_3" index="3" speed="30.00" length="8.88" width="3.00" shape="110.76,441.37 113.42,442.40 114.70,444.56 115.98,446.72 118.63,447.74"/>
    </edge>
    <edge id=":A5_0" function="internal">
        <lane id=":A5_0_0" index="0" speed="5.93" length="7.52" width="3.00" shape="25.36,515.96 25.70,518.35 26.49,520.02 27.72,520.97 29.41,521.20"/>
        <lane id=":A5_0_1" index="1" speed="7.44" length="12.43" width="3.00" shape="22.36,516.08 22.95,519.80 24.35,522.39 26.57,523.86 29.61,524.20"/>
    </edge>
    <edge id=":A5_2" function="internal">
        <lane id=":A5_2_0" index="0" speed="30.00" length="15.22" width="3.00" shape="16.37,516.32 17.49,520.90 19.65,524.06 21.71,526.76 22.52,529.94"/>
    </edge>
    <edge id=":A5_3" function="internal">
        <lane id=":A5_3_0" index="0" speed="5.73" length="7.52" width="3.00" shape="13.37,516.44 15.79,512.48 18.31,511.09"/>
    </edge>
    <edge id=":A5_9" function="internal">
        <lane id=":A5_9_0" index="0" speed="5.73" length="7.52" width="3.00" shape="18.31,511.09 20.94,512.27 23.66,516.03"/>
    </edge>
    <edge id=":A5_4" function="internal">
        <lane id=":A5_4_0" index="0" speed="30.00" length="14.43" width="3.00" shape="18.03,529.64 19.17,525.68 20.06,522.97 20.60,520.21 20.67,516.15"/>
        <lane id=":A5_4_1" index="1" speed="30.00" length="14.43" width="3.00" shape="18.03,529.64 19.69,525.53 21.61,522.91 23.15,520.25 23.66,516.03"/>
    </edge>
    <edge id=":A5_6" function="internal">
        <lane id=":A5_6_0" index="0" speed="8.65" length="1.13" width="3.00" shape="21.07,529.84 21.45,528.78"/>
        <lane id=":A5_6_1" index="1" speed="7.17" length="1.33" width="3.00" shape="24.11,530.05 24.55,528.79"/>
    </edge>
    <edge id=":A5_8" function="internal">
        <lane id=":A5_8_0" index="0" speed="2.98" length="1.17" width="3.00" shape="24.11,530.05 23.67,530.62 23.26,530.79"/>
    </edge>
    <edge id=":A5_10" function="internal">
        <lane id=":A5_10_0" index="0" speed="8.65" length="11.79" width="3.00" shape="21.45,528.78 22.35,526.22 24.16,523.57 26.52,521.90 29.41,521.20"/>
    </edge>
    <edge id=":A5_11" function="internal">
        <lane id=":A5_11_0" index="0" speed="7.17" length="7.30" width="3.00" shape="24.55,528.79 24.96,527.59 26.16,525.79 27.71,524.66 29.61,524.20"/>
    </edge>
    <edge id=":A5_12" function="internal">
        <lane id=":A5_12_0" index="0" speed="2.98" length="1.17" width="3.00" shape="23.26,530.79 22.87,530.57 22.52,529.94"/>
    </edge>
    <edge id=":A5A4.65.27_0" function="internal">
        <lane id=":A5A4.65.27_0_0" index="0" speed="30.00" length="8.88" width="3.00" shape="18.49,462.19 18.37,454.19"/>
        <lane id=":A5A4.65.27_0_1" index="1" speed="30.00" length="8.88" width="3.00" shape="21.49,462.07 21.36,454.07"/>
        <lane id=":A5A4.65.27_0_2" index="2" speed="30.00" length="8.88" width="3.00" shape="21.49,462.07 21.89,459.59 22.92,458.01 23.96,456.42 24.36,453.94"/>
        <lane id=":A5A4.65.27_0_3" index="3" speed="30.00" length="8.88" width="3.00" shape="21.49,462.07 22.35,459.36 24.42,457.95 26.50,456.53 27.36,453.82"/>
    </edge>
    <edge id=":A5A6.84.25_0" function="internal">
        <lane id=":A5A6.84.25_0_0" index="0" speed="30.00" length="9.17" width="3.00" shape="18.69,603.49 18.08,611.47"/>
        <lane id=":A5A6.84.25_0_1" index="1" speed="30.00" length="9.17" width="3.00" shape="18.69,603.49 18.07,605.93 16.89,607.41 15.71,608.89 15.08,611.32"/>
        <lane id=":A5A6.84.25_0_2" index="2" speed="30.00" length="9.17" width="3.00" shape="18.69,603.49 17.59,606.09 15.39,607.31 13.19,608.53 12.09,611.16"/>
    </edge>
    <edge id=":A5B5.62.85_0" function="internal">